 &time_control
 run_days                            = 0,
 run_hours                           = 0,
 run_minutes                         = 0,
 run_seconds                         = 0,
 start_year                          = 2018,
 start_month                         = 05,
 start_day                           = 19,
 start_hour                          = 00,
 end_year                            = 2021,
 end_month                           = 01,
 end_day                             = 01,
 end_hour                            = 06,
 interval_seconds                    = 10800
 input_from_file                     = .true.,
 auxinput1_inname                    = "/scratch/workdir/smn_010/CORDEX_ERA5/WPS/enlaces/met_em.d<domain>.<date>",
 history_interval                    = 60,
 frames_per_outfile                  = 1,
 restart                             = .true.,
 restart_interval                    = 7200,
 io_form_history                     = 2,
 io_form_restart                     = 2,
 io_form_input                       = 2,
 io_form_boundary                    = 2,
 debug_level                         = 0,
 auxinput4_inname                    = "wrflowinp_d<domain>"
 auxinput4_interval                  = 180,
 io_form_auxinput4                   = 2,

 auxhist9_outname                    = "wrfcdx_d<domain>_<date>"
 auxhist9_interval                   = 60,
 frames_per_auxhist9                 = 1,
 io_form_auxhist9                    = 2
 auxhist23_outname                   = "wrfpress_d<domain>_<date>"
 io_form_auxhist23                   = 2,
 auxhist23_interval                  = 60,
 frames_per_auxhist23                = 1,
 /

 &domains
 time_step                           = 120,
 time_step_fract_num                 = 0,
 time_step_fract_den                 = 1,
 max_dom                             = 1,
 e_we                                = 460,
 e_sn                                = 390,
 e_vert                              = 35,
 p_top_requested                     = 10000,
 num_metgrid_levels                  = 38,
 num_metgrid_soil_levels             = 4,
 dx                                  = 25000,
 dy                                  = 25000,
 grid_id                             = 1,
 parent_id                           = 1,
 i_parent_start                      = 1,
 j_parent_start                      = 1,
 parent_grid_ratio                   = 1,
 parent_time_step_ratio              = 1,
 feedback                            = 1,
 smooth_option                       = 0,
 use_adaptive_time_step              = .true.,
 step_to_output_time                 = .true.,
 wif_input_opt                       = 1,
 num_wif_levels                      = 30,
 /

 &physics
 mp_physics                          = 28,
 ra_lw_physics                       = 4,
 ra_sw_physics                       = 4,
 radt                                = 30,
 sf_sfclay_physics                   = 2,
 sf_surface_physics                  = 2,
 bl_pbl_physics                      = 2,
 bldt                                = 0,
 cu_physics                          = 6,
 cudt                                = 5,
 isfflx                              = 1,
 ifsnow                              = 0,
 icloud                              = 1,
 surface_input_source                = 1,
 num_soil_layers                     = 4,
 sf_urban_physics                    = 0,
 maxiens                             = 1,
 maxens                              = 3,
 maxens2                             = 3,
 maxens3                             = 16,
 ensdim                              = 144,
 sst_update                          = 1,
 ghg_input                           = 1,
 sst_skin                            = 1,
 use_aero_icbc                       = .true.,
 /


 &dynamics
 hybrid_opt                          = 2, 
 w_damping                           = 0,
 diff_opt                            = 2,
 km_opt                              = 4,
 diff_6th_opt                        = 2,
 diff_6th_factor                     = 0.12,
 base_temp                           = 290.
 damp_opt                            = 3,
 zdamp                               = 5000.,
 dampcoef                            = 0.2,
 khdif                               = 0,
 kvdif                               = 0,
 non_hydrostatic                     = .true.,
 moist_adv_opt                       = 1,
 scalar_adv_opt                      = 1,
 gwd_opt                             = 1,
 epssm                               = 0.5,
 mix_full_fields                     = .true.,
 /

 &bdy_control
 spec_bdy_width                      = 5,
 specified                           = .true.
 /

 &bdy_control
 spec_bdy_width           = 5,
 spec_zone                = 1,
 relax_zone               = 4,
 specified                = .true.,
 nested                   = .false.,
 /

 &grib2
 /

 &namelist_quilt
 nio_tasks_per_group = 0,
 nio_groups = 1,
 /

 &diags
 p_lev_diags = 1,
 num_press_levels = 10,
 press_levels = 100000,92500,85000,70000,60000,50000,40000,30000,25000,20000,
 use_tot_or_hyd_p = 1
 p_lev_missing = -999.
 /

 &cordex
 output_cordex              = 1
 output_wb                  = 1
 convxtrm_diag              = 1
 /
